data/TasNetworks - TasNetworks sourcebus_11000.trafo_75605182_75605182/Lines.dss
New Line.line_75603220_3094953_3094540 Units=km Length=0.045799999237060546 bus1=3094540.1.2.3 bus2=3094953.1.2.3 switch=n enabled=y phases=3 Linecode=3P_OH_Code1
New Line.line_75603221_3095408_3094541 Units=km Length=0.014 bus1=3094541.1 bus2=3095408.1 switch=n enabled=y phases=1 Linecode=1P_Code0
New Line.line_75603237_3095187_3094554 Units=km Length=0.010600000381469727 bus1=3094554.1.2.3 bus2=3095187.1.2.3 switch=n enabled=y phases=3 Linecode=3P_OH_Code1
New Line.line_75603238_3094540_3094555 Units=km Length=0.079 bus1=3094555.1.2.3 bus2=3094540.1.2.3 switch=n enabled=y phases=3 Linecode=3P_OH_Code1
New Line.line_75603260_3094541_3094575 Units=km Length=0.03540000152587891 bus1=3094575.1.2.3 bus2=3094541.1.2.3 switch=n enabled=y phases=3 Linecode=3P_OH_Code1
New Line.line_75603264_3095045_3094579 Units=km Length=0.020600000381469728 bus1=3094579.1.2.3 bus2=3095045.1.2.3 switch=n enabled=y phases=3 Linecode=3P_Code4
New Line.line_75603277_3094759_3094589 Units=km Length=0.04620000076293945 bus1=3094589.1.2.3 bus2=3094759.1.2.3 switch=n enabled=y phases=3 Linecode=3P_OH_Code1
New Line.line_75603295_3095140_3094589 Units=km Length=0.009600000381469726 bus1=3094589.1.2.3 bus2=3095140.1.2.3 switch=n enabled=y phases=3 Linecode=3P_Code4
New Line.line_75603299_3094540_3094603 Units=km Length=0.026100000381469726 bus1=3094603.1 bus2=3094540.1 switch=n enabled=y phases=1 Linecode=1P_Code2
New Line.line_75603309_3094589_3094541 Units=km Length=0.053400001525878905 bus1=3094541.1.2.3 bus2=3094589.1.2.3 switch=n enabled=y phases=3 Linecode=3P_OH_Code1
New Line.line_75603310_3094575_3094611 Units=km Length=0.04829999923706055 bus1=3094611.1.2.3 bus2=3094575.1.2.3 switch=n enabled=y phases=3 Linecode=3P_OH_Code1
New Line.line_75603538_3095581_3094540 Units=km Length=0.023899999618530274 bus1=3094540.1 bus2=3095581.1 switch=n enabled=y phases=1 Linecode=1P_Code2
New Line.line_75603539_3095582_3094759 Units=km Length=0.023399999618530273 bus1=3094759.1 bus2=3095582.1 switch=n enabled=y phases=1 Linecode=1P_Code2
New Line.line_75603540_3095583_3094575 Units=km Length=0.027799999237060547 bus1=3094575.2 bus2=3095583.2 switch=n enabled=y phases=1 Linecode=1P_Code2
New Line.line_75603541_3095584_3094760 Units=km Length=0.027600000381469727 bus1=3094760.3 bus2=3095584.3 switch=n enabled=y phases=1 Linecode=1P_Code2
New Line.line_75603542_3095585_3094760 Units=km Length=0.025700000762939455 bus1=3094760.1 bus2=3095585.1 switch=n enabled=y phases=1 Linecode=1P_Code2
New Line.line_75603543_3095586_3094579 Units=km Length=0.024600000381469728 bus1=3094579.3 bus2=3095586.3 switch=n enabled=y phases=1 Linecode=1P_Code2
New Line.line_75603577_3095617_3094575 Units=km Length=0.025899999618530276 bus1=3094575.3 bus2=3095617.3 switch=n enabled=y phases=1 Linecode=1P_Code2
New Line.line_75603658_3095697_3094555 Units=km Length=0.025 bus1=3094555.1 bus2=3095697.1 switch=n enabled=y phases=1 Linecode=1P_Code2
New Line.line_75603659_3095698_3094816 Units=km Length=0.019600000381469727 bus1=3094816.3 bus2=3095698.3 switch=n enabled=y phases=1 Linecode=1P_Code2
New Line.line_75603660_3095699_3094817 Units=km Length=0.0185 bus1=3094817.1 bus2=3095699.1 switch=n enabled=y phases=1 Linecode=1P_Code2
New Line.line_75603737_3095762_3094589 Units=km Length=0.0275 bus1=3094589.3 bus2=3095762.3 switch=n enabled=y phases=1 Linecode=1P_Code2
New Line.line_75603738_3095763_3094760 Units=km Length=0.028100000381469727 bus1=3094760.1 bus2=3095763.1 switch=n enabled=y phases=1 Linecode=1P_Code2
New Line.line_75603756_3094817_3094611 Units=km Length=0.020600000381469728 bus1=3094611.1 bus2=3094817.1 switch=n enabled=y phases=1 Linecode=1P_Code2
New Line.line_75603828_3094541_3094894 Units=km Length=0.023 bus1=3094894.3 bus2=3094541.3 switch=n enabled=y phases=1 Linecode=1P_Code2
New Line.line_75603888_3095860_3094555 Units=km Length=0.026799999237060546 bus1=3094555.3 bus2=3095860.3 switch=n enabled=y phases=1 Linecode=1P_Code2
New Line.line_75603963_3094574_3094953 Units=km Length=0.025700000762939455 bus1=3094953.1.2.3 bus2=3094574.1.2.3 switch=n enabled=y phases=3 Linecode=3P_OH_Code1
New Line.line_75604001_3095918_3094759 Units=km Length=0.022899999618530273 bus1=3094759.2 bus2=3095918.2 switch=n enabled=y phases=1 Linecode=1P_Code2
New Line.line_75604194_3096027_3094953 Units=km Length=0.028100000381469727 bus1=3094953.3 bus2=3096027.3 switch=n enabled=y phases=1 Linecode=1P_Code2
New Line.line_75604211_3094953_3095043 Units=km Length=0.013699999809265137 bus1=3095043.1.2.3 bus2=3094953.1.2.3 switch=n enabled=y phases=3 Linecode=3P_Code5
New Line.line_75604217_3096037_3095045 Units=km Length=0.017399999618530275 bus1=3095045.3 bus2=3096037.3 switch=n enabled=y phases=1 Linecode=1P_Code2
New Line.line_75604236_3096046_3094555 Units=km Length=0.029700000762939455 bus1=3094555.1 bus2=3096046.1 switch=n enabled=y phases=1 Linecode=1P_Code0
New Line.line_75604306_3096092_3094554 Units=km Length=0.018100000381469725 bus1=3094554.1 bus2=3096092.1 switch=n enabled=y phases=1 Linecode=1P_Code2
New Line.line_75604500_3096194_3095140 Units=km Length=0.0155 bus1=3095140.3 bus2=3096194.3 switch=n enabled=y phases=1 Linecode=1P_Code2
New Line.line_75604561_3095187_3094760 Units=km Length=0.0360999984741211 bus1=3094760.1.2.3 bus2=3095187.1.2.3 switch=n enabled=y phases=3 Linecode=3P_OH_Code1
New Line.line_75604568_3096228_3094554 Units=km Length=0.014899999618530274 bus1=3094554.3 bus2=3096228.3 switch=n enabled=y phases=1 Linecode=1P_Code2
New Line.line_75604648_3094611_3095187 Units=km Length=0.04370000076293946 bus1=3095187.1.2.3 bus2=3094611.1.2.3 switch=n enabled=y phases=3 Linecode=3P_OH_Code1
New Line.line_75604653_3094760_3094579 Units=km Length=0.03670000076293945 bus1=3094579.1.2.3 bus2=3094760.1.2.3 switch=n enabled=y phases=3 Linecode=3P_OH_Code1
New Line.line_75604670_3094555_3094759 Units=km Length=0.04570000076293945 bus1=3094759.1.2.3 bus2=3094555.1.2.3 switch=n enabled=y phases=3 Linecode=3P_OH_Code1
New Line.line_75604777_3094816_3094589 Units=km Length=0.015800000190734863 bus1=3094589.3 bus2=3094816.3 switch=n enabled=y phases=1 Linecode=1P_Code2
New Line.line_75604784_3096339_3095140 Units=km Length=0.014699999809265138 bus1=3095140.1 bus2=3096339.1 switch=n enabled=y phases=1 Linecode=1P_Code2
New Line.line_75604797_3096345_3094817 Units=km Length=0.021100000381469728 bus1=3094817.1 bus2=3096345.1 switch=n enabled=y phases=1 Linecode=1P_Code2
New Line.line_75604844_3096367_3094540 Units=km Length=0.025200000762939455 bus1=3094540.2 bus2=3096367.2 switch=n enabled=y phases=1 Linecode=1P_Code2
New Line.line_75604876_3096386_3094759 Units=km Length=0.030299999237060546 bus1=3094759.2 bus2=3096386.2 switch=n enabled=y phases=1 Linecode=1P_Code2
New Line.line_75604885_3096392_3094611 Units=km Length=0.014399999618530274 bus1=3094611.2 bus2=3096392.2 switch=n enabled=y phases=1 Linecode=1P_Code0
New Line.line_75604926_3096411_3094555 Units=km Length=0.031700000762939454 bus1=3094555.3 bus2=3096411.3 switch=n enabled=y phases=1 Linecode=1P_Code2
New Line.line_75604942_3096420_3094554 Units=km Length=0.024799999237060548 bus1=3094554.1 bus2=3096420.1 switch=n enabled=y phases=1 Linecode=1P_Code2
New Line.line_75604948_3096425_3095045 Units=km Length=0.017899999618530275 bus1=3095045.3 bus2=3096425.3 switch=n enabled=y phases=1 Linecode=1P_Code2
New Line.line_75605106_3096528_3094540 Units=km Length=0.01779999923706055 bus1=3094540.2 bus2=3096528.2 switch=n enabled=y phases=1 Linecode=1P_Code0
New Line.line_75611836_3097800_3095408 Units=km Length=0.012181610043331889 bus1=3095408.1 bus2=3097800.1 switch=n enabled=y phases=1 Linecode=1P_Code3
New Line.line_75611838_3097802_3095043 Units=km Length=0.016782098267011214 bus1=3095043.1 bus2=3097802.1 switch=n enabled=y phases=1 Linecode=1P_Code3
New Line.line_75611839_3097803_3096528 Units=km Length=0.014976089776537548 bus1=3096528.2 bus2=3097803.2 switch=n enabled=y phases=1 Linecode=1P_Code3
New Line.line_75612071_3098035_3096367 Units=km Length=0.017984879906637892 bus1=3096367.2 bus2=3098035.2 switch=n enabled=y phases=1 Linecode=1P_Code3
New Line.line_75612072_3098036_3095408 Units=km Length=0.012181610043331889 bus1=3095408.1 bus2=3098036.1 switch=n enabled=y phases=1 Linecode=1P_Code3
New Line.line_75612098_3098062_3096411 Units=km Length=0.014118922692233821 bus1=3096411.3 bus2=3098062.3 switch=n enabled=y phases=1 Linecode=1P_Code3
New Line.line_75612256_3098220_3096392 Units=km Length=0.012020529105957842 bus1=3096392.2 bus2=3098220.2 switch=n enabled=y phases=1 Linecode=1P_Code3
